/*--------------------------------*- C++ -*----------------------------------*\
| =========                 |                                                 |
| \\      /  F ield         | OpenFOAM: The Open Source CFD Toolbox           |
|  \\    /   O peration     | Version:  v1906                                 |
|   \\  /    A nd           | Web:      www.OpenFOAM.com                      |
|    \\/     M anipulation  |                                                 |
\*---------------------------------------------------------------------------*/
FoamFile
{
    version     2.0;
    format      binary;
    class       volScalarField;
    object      diffCo1;
}
// * * * * * * * * * * * * * * * * * * * * * * * * * * * * * * * * * * * * * //

dimensions      [0 2 -1 0 0 0 0];

internalField   uniform 1.0E-8;

boundaryField
{
    left
    {
        type           zeroGradient;
    }
    right
    {
        type           zeroGradient;
    }
    spheresCollection
    {
        type           zeroGradient;
    }
    "proc.*"
    {
        type           processor;
    }
    sides
    {
        type           symmetry;
    }
}

// ************************************************************************* //
